Circuit: * D:\Facultad Jeremías\2023 Segundo semestre\Sintesis de redes activas\Laboratorio\TP4\simulacion1_10porciento.asc

WARNING: Less than two connections to node NC_01.  This node is used by V4.
Early termination of direct N-R iteration.
Direct Newton iteration failed to find .op point.  (Use ".option noopiter" to skip.)
Starting Gmin stepping
Gmin = 10
vernier = 0.5
vernier = 0.25
Gmin = 2.62144
vernier = 0.125
vernier = 0.0625
vernier = 0.03125
vernier = 0.015625
vernier = 0.0078125
Gmin = 2.60112
vernier = 0.0104167
vernier = 0.00520833
vernier = 0.00260417
Gmin = 2.57251
vernier = 0.00347222
vernier = 0.00173611
vernier = 0.000868055
Gmin = 2.5586
vernier = 0.00115741
Gmin = 2.55213
vernier = 0.00154321
vernier = 0.00205761
vernier = 0.00102881
vernier = 0.000514403
Gmin = 2.5455
vernier = 0.00068587
Gmin = 2.54168
vernier = 0.000914493
vernier = 0.00121932
vernier = 0.000609662
vernier = 0.000457246
Gmin = 2.53776
vernier = 0.000609662
Gmin = 2.53438
vernier = 0.000812882
vernier = 0.00108384
vernier = 0.000541921
vernier = 0.000406441
Gmin = 2.53091
vernier = 0.000541921
Gmin = 2.52791
vernier = 0.000722561
vernier = 0.000541921
vernier = 0.000406441
vernier = 0.000541921
Gmin = 2.52594
vernier = 0.000722561
vernier = 0.000541921
vernier = 0.000406441
Gmin = 2.52372
vernier = 0.000541921
vernier = 0.00040644
Gmin = 0
Gmin stepping failed

Starting source stepping with srcstepmethod=0
Source Step = 3.0303%
Source Step = 33.3333%
Source Step = 63.6364%
Source Step = 93.9394%
Source stepping succeeded in finding the operating point.


Date: Tue Dec 05 22:24:10 2023
Total elapsed time: 1.970 seconds.

tnom = 27
temp = 27
method = trap
totiter = 8763
traniter = 0
tranpoints = 0
accept = 0
rejected = 0
matrix size = 111
fillins = 1259
solver = Normal
Matrix Compiler1:    7068 opcodes
Matrix Compiler2: 30.39 KB object code size  4.5/3.2/[1.3]

