Circuit: * D:\Facultad Jeremías\2023 Segundo semestre\Sintesis de redes activas\Laboratorio\TP4\simulacion1_vREAL.asc

WARNING: Less than two connections to node NC_01.  This node is used by V4.
Early termination of direct N-R iteration.
Direct Newton iteration failed to find .op point.  (Use ".option noopiter" to skip.)
Starting Gmin stepping
Gmin = 10
vernier = 0.5
vernier = 0.25
Gmin = 2.91271
vernier = 0.125
vernier = 0.0625
vernier = 0.03125
vernier = 0.015625
Gmin = 2.78099
vernier = 0.0078125
vernier = 0.00390625
vernier = 0.00195313
Gmin = 2.76073
vernier = 0.000976563
vernier = 0.000488281
Gmin = 0
Gmin stepping succeeded in finding the operating point.


Date: Tue Dec 05 03:43:10 2023
Total elapsed time: 0.328 seconds.

tnom = 27
temp = 27
method = trap
totiter = 1552
traniter = 0
tranpoints = 0
accept = 0
rejected = 0
matrix size = 111
fillins = 1197
solver = Normal
Matrix Compiler1:    5963 opcodes
Matrix Compiler2: 29.34 KB object code size  4.2/3.3/[1.2]

