Circuit: * D:\Facultad Jeremías\2023 Segundo semestre\Sintesis de redes activas\Laboratorio\TP4\simulacion1_v0.asc

WARNING: Less than two connections to node NC_01.  This node is used by V4.
Early termination of direct N-R iteration.
Direct Newton iteration failed to find .op point.  (Use ".option noopiter" to skip.)
Starting Gmin stepping
Gmin = 10
vernier = 0.5
vernier = 0.25
Gmin = 2.91271
vernier = 0.125
vernier = 0.0625
vernier = 0.03125
vernier = 0.015625
Gmin = 2.78099
vernier = 0.0078125
vernier = 0.00390625
vernier = 0.00195313
Gmin = 2.76073
vernier = 0.000976563
vernier = 0.000488281
Gmin = 0
Gmin stepping failed

Starting source stepping with srcstepmethod=0
Source Step = 3.0303%
Source Step = 33.3333%
Source Step = 63.6364%
Source Step = 93.9394%
Source stepping succeeded in finding the operating point.


Date: Tue Dec 05 20:44:10 2023
Total elapsed time: 0.896 seconds.

tnom = 27
temp = 27
method = modified trap
totiter = 9348
traniter = 7610
tranpoints = 3806
accept = 2666
rejected = 1140
matrix size = 111
fillins = 1223
solver = Normal
Thread vector: 7.7/5.6[2] 2.1/1.5[2] 3.7/3.1[2] 0.9/1.5[1]  2592/500
Matrix Compiler1: 122.69 KB object code size  17.8/7.6/[4.4]
Matrix Compiler2: 29.74 KB object code size  5.6/3.9/[1.7]

