Circuit: * E:\Documentos\GitHub\lab2SRA\circuito2.1.asc

Direct Newton iteration for .op point succeeded.

Date: Tue Dec 12 01:19:50 2023
Total elapsed time: 0.102 seconds.

tnom = 27
temp = 27
method = modified trap
totiter = 2095
traniter = 2082
tranpoints = 1042
accept = 1042
rejected = 0
matrix size = 60
fillins = 142
solver = Normal
Matrix Compiler1: 12.80 KB object code size  1.9/1.4/[0.6]
Matrix Compiler2: 7.51 KB object code size  0.7/1.2/[0.5]

