Circuit: * E:\Documentos\GitHub\lab2SRA\circuito2.3.asc

Direct Newton iteration for .op point succeeded.

Date: Tue Dec 12 15:06:45 2023
Total elapsed time: 0.206 seconds.

tnom = 27
temp = 27
method = modified trap
totiter = 2095
traniter = 2082
tranpoints = 1042
accept = 1042
rejected = 0
matrix size = 60
fillins = 142
solver = Normal
Matrix Compiler1: 12.54 KB object code size  2.1/1.0/[0.6]
Matrix Compiler2: 7.39 KB object code size  0.6/0.8/[0.4]

