Circuit: * E:\Documentos\GitHub\lab2SRA\circuito1.2.asc

Direct Newton iteration for .op point succeeded.

Date: Wed Nov 29 22:40:51 2023
Total elapsed time: 0.107 seconds.

tnom = 27
temp = 27
method = modified trap
totiter = 293
traniter = 280
tranpoints = 141
accept = 100
rejected = 41
matrix size = 33
fillins = 38
solver = Normal
Matrix Compiler1: 3.29 KB object code size  0.6/0.3/[0.2]
Matrix Compiler2: 3.32 KB object code size  0.3/0.4/[0.3]

