Circuit: * E:\Documentos\GitHub\lab2SRA\circuito1.5.asc

Direct Newton iteration for .op point succeeded.

Date: Mon Dec 11 12:29:14 2023
Total elapsed time: 0.079 seconds.

tnom = 27
temp = 27
method = trap
totiter = 13
traniter = 0
tranpoints = 0
accept = 0
rejected = 0
matrix size = 31
fillins = 37
solver = Normal
Matrix Compiler1:     175 opcodes
Matrix Compiler2: 3.15 KB object code size
