Circuit: * E:\Documentos\GitHub\lab2SRA\circuito2.2.asc

Direct Newton iteration for .op point succeeded.

Date: Tue Dec 12 14:56:50 2023
Total elapsed time: 0.149 seconds.

tnom = 27
temp = 27
method = modified trap
totiter = 2095
traniter = 2082
tranpoints = 1042
accept = 1042
rejected = 0
matrix size = 64
fillins = 142
solver = Normal
Matrix Compiler1: 12.69 KB object code size  1.9/1.0/[0.5]
Matrix Compiler2: 7.71 KB object code size  0.6/1.3/[0.4]

