Circuit: * E:\Documentos\GitHub\lab2SRA\circuito1.asc

Direct Newton iteration for .op point succeeded.

Date: Wed Nov 29 21:50:38 2023
Total elapsed time: 0.061 seconds.

tnom = 27
temp = 27
method = modified trap
totiter = 297
traniter = 284
tranpoints = 143
accept = 102
rejected = 41
matrix size = 31
fillins = 38
solver = Normal
Matrix Compiler1:     178 opcodes  0.6/[0.3]/0.7
Matrix Compiler2: 3.16 KB object code size  0.3/0.3/[0.2]

